version 2
run General-0-20161214-18:00:04-3975
attr configname General
attr datetime 20161214-18:00:04
attr experiment General
attr inifile omnetpp.ini
attr iterationvars ""
attr iterationvars2 $repetition=0
attr measurement ""
attr network cliServExample
attr processid 3975
attr repetition 0
attr replication #0
attr resultdir results
attr runnumber 0
attr seedset 0

