version 2
run discoC-0-20170410-14:16:45-1045
attr configname discoC
attr datetime 20170410-14:16:45
attr experiment discoC
attr inifile omnetpp_10G.ini
attr iterationvars ""
attr iterationvars2 $repetition=0
attr measurement ""
attr network scenario_10G
attr processid 1045
attr repetition 0
attr replication #0
attr resultdir results
attr runnumber 0
attr seedset 0

